/*--------------------------------*- C++ -*----------------------------------*\
| =========                 |                                                 |
| \\      /  F ield         | OpenFOAM: The Open Source CFD Toolbox           |
|  \\    /   O peration     | Version:  2.1.x                                 |
|   \\  /    A nd           | Web:      www.OpenFOAM.org                      |
|    \\/     M anipulation  |                                                 |
\*---------------------------------------------------------------------------*/
FoamFile
{
    version     2.0;
    format      ascii;
    class       dictionary;
    object      sampleDict;
}
// * * * * * * * * * * * * * * * * * * * * * * * * * * * * * * * * * * * * //
type sets;
// Set output format : choice of
//      xmgr
//      jplot
//      gnuplot
//      raw
//      vtk
//      csv
setFormat csv;

// Surface output format. Choice of
//      null        : suppress output
//      ensight     : Ensight Gold format, one field per case file
//      foamFile    : separate points, faces and values file
//      dx          : DX scalar or vector format
//      vtk         : VTK ascii format
//      raw         : x y z value format for use with e.g. gnuplot 'splot'.
//
// Note:
// other formats such as obj, stl, etc can also be written (by proxy)
// but without any values!
surfaceFormat csv;

// optionally define extra controls for the output formats
/*formatOptions
{
    ensight
    {
        format  ascii;
    }
}
*/
// interpolationScheme. choice of
//      cell          : use cell-centre value only; constant over cells (default)
//      cellPoint     : use cell-centre and vertex values
//      cellPointFace : use cell-centre, vertex and face values.
//      pointMVC      : use point values only (Mean Value Coordinates)
//      cellPatchConstrained : use cell-centre except on boundary faces where
//        it uses the boundary value. For use with e.g. patchCloudSet.
// 1] vertex values determined from neighbouring cell-centre values
// 2] face values determined using the current face interpolation scheme
//    for the field (linear, gamma, etc.)
interpolationScheme cell;

// Fields to sample.
fields
(
    	p
	T
	rho
	U
);

// Set sampling definition: choice of
//      uniform             evenly distributed points on line
//      face                one point per face intersection
//      midPoint            one point per cell, inbetween two face intersections
//      midPointAndFace     combination of face and midPoint
//
//      polyLine            specified points, not nessecary on line, uses
//                          tracking
//      cloud               specified points, uses findCell
//      triSurfaceMeshPointSet  points of triSurface
//
// axis: how to write point coordinate. Choice of
// - x/y/z: x/y/z coordinate only
// - xyz: three columns
//  (probably does not make sense for anything but raw)
// - distance: distance from start of sampling line (if uses line) or
//             distance from first specified sampling point
//
// type specific:
//      uniform, face, midPoint, midPointAndFace : start and end coordinate
//      uniform: extra number of sampling points
//      polyLine, cloud: list of coordinates
//      patchCloud: list of coordinates and set of patches to look for nearest
sets
(
	
    station1
    {
        type        uniform;
        axis        xyz;
        start       (59.6999 0.6687 0);
        end         (59.6999 1.2021 0);
        nPoints     100;
    }

    stationth
    {
        type        uniform;
        axis        xyz;
        start       (59.7652 0.6714 0);
        end         (59.7652 1.1653 0);
        nPoints     100;
    }

    station2
    {
        type        uniform;
        axis        xyz;
        start       (60.2999 0.6714 0);
        end         (60.2999 1.1856 0);
    	nPoints     100;
	}
	
	station13
    {
        type        uniform;
        axis        xyz;
        start       (60.8298 0.7400 0);
        end         (60.8298 1.1856 0);
		nPoints		100;
    }
	station18
    {
        type        uniform;
        axis        xyz;
        start       (61.9214 0.7400 0);
        end         (61.9214 1.0900 0);
		nPoints		100;
    }
	stationBL
    {
        type        uniform;
        axis        xyz;
        start       (59.3129 0.6714 0);
        end         (59.5263 40.0000 0);
		nPoints		1000;
    }   
);




// *********************************************************************** //
